!!>>>>>>>>>>>>>>>>>>>>>>>>>>>>>>>>>>>>>>>>>>>>>>>>>>>>>>>>>>>>>>>>>>>>>>
!! NEMO/TOP1 :  Configuration namelist : used to overwrite defaults values defined in SHARED/namelist_top_ref
!>>>>>>>>>>>>>>>>>>>>>>>>>>>>>>>>>>>>>>>>>>>>>>>>>>>>>>>>>>>>>>>>>>>>>>>
!-----------------------------------------------------------------------
&namtrc_run      !   run information
!-----------------------------------------------------------------------
/
!-----------------------------------------------------------------------
&namtrc          !   tracers definition
!-----------------------------------------------------------------------
/
!-----------------------------------------------------------------------
&namage          !   AGE 
!-----------------------------------------------------------------------
/
!-----------------------------------------------------------------------
&namtrc_dta      !    Initialisation from data input file
!-----------------------------------------------------------------------
/
!-----------------------------------------------------------------------
&namtrc_adv      !   advection scheme for passive tracer                (default: NO selection)
!-----------------------------------------------------------------------
/
!-----------------------------------------------------------------------
&namtrc_ldf      !   lateral diffusion scheme for passive tracer        (default: NO selection)
!-----------------------------------------------------------------------
/
!-----------------------------------------------------------------------
&namtrc_rad      !  treatment of negative concentrations 
!-----------------------------------------------------------------------
/
!-----------------------------------------------------------------------
&namtrc_snk      !  sedimentation of particles
!-----------------------------------------------------------------------
/
!-----------------------------------------------------------------------
&namtrc_opt      !  light availability in the water column
!-----------------------------------------------------------------------
/
!-----------------------------------------------------------------------
&namtrc_dmp      !   passive tracer newtonian damping   
!-----------------------------------------------------------------------
/
!-----------------------------------------------------------------------
&namtrc_ice      !    Representation of sea ice growth & melt effects
!-----------------------------------------------------------------------
/
!-----------------------------------------------------------------------
&namtrc_trd      !   diagnostics on tracer trends                       ('key_trdtrc')
!----------------------------------------------------------------------
/
!----------------------------------------------------------------------
&namtrc_bc       !   data for boundary conditions
!-----------------------------------------------------------------------
/
!----------------------------------------------------------------------
&namtrc_bdy      !   Setup of tracer boundary conditions
!-----------------------------------------------------------------------
/
!-----------------------------------------------------------------------
&namtrc_ais      !  Representation of Antarctic Ice Sheet tracers supply
!-----------------------------------------------------------------------
/
